22
C7ax-TT E(MP2)= -494.6212424777
H  -2.3989630276  1.7188732206  0.6070356925
C  -1.7037180734  1.1022029687  1.1821106999
H  -1.5237247801  1.6013175366  2.1365276065
H  -2.1559176532  0.1243116641  1.3614770406
C  -0.3949173471  1.0325861132  0.4221593645
O  0.2763493984  2.0452709380  0.2104251629
N  -0.0282338234  -0.2078184989  -0.0031249056
H  -0.6201994592  -0.9779062169  0.2694845881
C  1.1284326506  -0.5342605970  -0.8468416549
H  1.0200711778  -1.5955444465  -1.0829634526
C  1.1478186558  0.2607154535  -2.1554970966
H  0.2231514080  0.0810544977  -2.7120893634
H  1.2461765956  1.3309918060  -1.9712256034
H  1.9939554933  -0.0766692474  -2.7614189809
C  2.4780962045  -0.4590185953  -0.1140876214
O  3.2370403929  -1.4284755406  -0.1080878514
N  2.7784347159  0.7288658134  0.4581199253
H  2.0869706220  1.4717037005  0.4162918623
C  4.0407472051  0.9101932813  1.1535493127
H  4.1276978350  0.2132690176  1.9919125931
H  4.0856557618  1.9341155594  1.5269766789
H  4.8812103359  0.7330420805  0.4772166024
